[Format]      =  4.0
[Frequency]   =  60
[Precision]   =  1e-008
[MinAngle]    =  30
[Depth]       =  1
[LengthUnits] =  centimeters
[ProblemType] =  planar
[Coordinates] =  cartesian
[ACSolver]    =  0
[Comment]     =  "Add comments here."
[PointProps]   = 0
[BdryProps]   = 1
  <BeginBdry>
    <BdryName> = "A=0"
    <BdryType> = 0
    <A_0> = 0
    <A_1> = 0
    <A_2> = 0
    <Phi> = 0
    <c0> = 0
    <c0i> = 0
    <c1> = 0
    <c1i> = 0
    <Mu_ssd> = 0
    <Sigma_ssd> = 0
  <EndBdry>
[BlockProps]  = 4
  <BeginBlock>
    <BlockName> = "Air"
    <Mu_x> = 1
    <Mu_y> = 1
    <H_c> = 0
    <H_cAngle> = 0
    <J_re> = 0
    <J_im> = 0
    <Sigma> = 0
    <d_lam> = 0
    <Phi_h> = 0
    <Phi_hx> = 0
    <Phi_hy> = 0
    <LamType> = 0
    <LamFill> = 1
    <NStrands> = 0
    <WireD> = 0
    <BHPoints> = 0
  <EndBlock>
  <BeginBlock>
    <BlockName> = "Pure Iron"
    <Mu_x> = 14872
    <Mu_y> = 14872
    <H_c> = 0
    <H_cAngle> = 0
    <J_re> = 0
    <J_im> = 0
    <Sigma> = 10.44
    <d_lam> = 0
    <Phi_h> = 0
    <Phi_hx> = 0
    <Phi_hy> = 0
    <LamType> = 0
    <LamFill> = 1
    <NStrands> = 0
    <WireD> = 0
    <BHPoints> = 21
      0	0
      0.22706499999999999	13.898400000000001
      0.45412999999999998	27.796700000000001
      0.68119499999999999	42.397399999999998
      0.90825999999999996	61.415700000000001
      1.13533	82.382400000000004
      1.36239	144.66900000000001
      1.58935	897.75999999999999
      1.81236	4581.7399999999998
      2.01004	17736.200000000001
      2.1331600000000002	41339.300000000003
      2.1999900000000001	68321.800000000003
      2.2547899999999998	95685.5
      2.2999299999999998	123355
      2.3425099999999999	151083
      2.3787600000000002	178954
      2.4150100000000001	206825
      2.45126	234696
      2.4874999999999998	262568
      2.5237500000000002	290439
      2.5600000000000001	318310
  <EndBlock>
  <BeginBlock>
    <BlockName> = "14 AWG"
    <Mu_x> = 1
    <Mu_y> = 1
    <H_c> = 0
    <H_cAngle> = 0
    <J_re> = 0
    <J_im> = 0
    <Sigma> = 58
    <d_lam> = 0
    <Phi_h> = 0
    <Phi_hx> = 0
    <Phi_hy> = 0
    <LamType> = 3
    <LamFill> = 1
    <NStrands> = 1
    <WireD> = 1.62813422596841
    <BHPoints> = 0
  <EndBlock>
  <BeginBlock>
    <BlockName> = "Aluminum, 1100"
    <Mu_x> = 1
    <Mu_y> = 1
    <H_c> = 0
    <H_cAngle> = 0
    <J_re> = 0
    <J_im> = 0
    <Sigma> = 34.450000000000003
    <d_lam> = 0
    <Phi_h> = 0
    <Phi_hx> = 0
    <Phi_hy> = 0
    <LamType> = 0
    <LamFill> = 1
    <NStrands> = 0
    <WireD> = 0
    <BHPoints> = 0
  <EndBlock>
[CircuitProps]  = 1
  <BeginCircuit>
    <CircuitName> = "I"
    <TotalAmps_re> = 10
    <TotalAmps_im> = 0
    <CircuitType> = 1
  <EndCircuit>
[NumPoints] = 24
0	0	0	0
2.5600000000000001	0	0	0
0	28	0	0
2.5499999999999998	28	0	0
-0.22	1.3999999999999999	0	0
2.77	1.3999999999999999	0	0
-1.05	1.3999999999999999	0	0
3.5699999999999998	1.3999999999999999	0	0
-0.22	13.4	0	0
-1.02	13.4	0	0
2.77	13.4	0	0
3.5699999999999998	13.4	0	0
-0.46999999999999997	17.100000000000001	0	0
-2.0699999999999998	17.09	0	0
3.02	17.100000000000001	0	0
4.6200000000000001	17.100000000000001	0	0
4.6200000000000001	17.199999999999999	0	0
3.02	17.219999999999999	0	0
-0.46999999999999997	17.199999999999999	0	0
-2.0699999999999998	17.199999999999999	0	0
-26.899999999999999	36.899999999999999	0	0
29	36.799999999999997	0	0
29	-8.1999999999999993	0	0
-27.100000000000001	-8.1999999999999993	0	0
[NumSegments] = 24
0	1	-1	0	0	0
2	3	-1	0	0	0
0	2	-1	0	0	0
3	1	-1	0	0	0
4	6	-1	0	0	0
5	7	-1	0	0	0
9	8	-1	0	0	0
10	11	-1	0	0	0
8	4	-1	0	0	0
9	6	-1	0	0	0
10	5	-1	0	0	0
7	11	-1	0	0	0
13	12	-1	0	0	0
14	15	-1	0	0	0
17	16	-1	0	0	0
16	15	-1	0	0	0
17	14	-1	0	0	0
19	18	-1	0	0	0
12	18	-1	0	0	0
19	13	-1	0	0	0
20	21	-1	1	0	0
21	22	-1	1	0	0
22	23	-1	1	0	0
23	20	-1	1	0	0
[NumArcSegments] = 0
[NumHoles] = 0
[NumBlockLabels] = 6
-15.1	31.600000000000001	1	-1	0	0	0	1	0
0.90000000000000002	25.300000000000001	2	-1	0	0	0	1	0
3.2000000000000002	11.1	3	-1	1	0	0	300	0
-0.59999999999999998	9.9000000000000004	3	-1	1	0	0	300	0
3.27	17.170000000000002	4	-1	0	0	0	1	0
-1.9199999999999999	17.129999999999999	4	-1	0	0	0	1	0
